example_uvm/pyglm/test_SOUTH_D1_Alburgh_volt.csv
# test_SOUTH_D1_Alburgh_volt.csv run at 2000-01-01 00:00:00 EST on 19628 powerflow objects (not all are nodes)
node_name,voltA_mag,voltA_angle,voltB_mag,voltB_angle,voltC_mag,voltC_angle
e72804503095262,108.800535,-0.062806,108.800535,-0.062806,0.000000,0.000000
span_197041,117.300878,-0.039748,117.300878,-0.039748,0.000000,0.000000
span_197047,108.970541,-0.061361,108.970541,-0.061361,0.000000,0.000000
span_197046,108.970541,-0.061361,108.970541,-0.061361,0.000000,0.000000
span_133862,117.242216,-0.041248,117.242216,-0.041248,0.000000,0.000000
span_70104,115.441390,2.043572,115.441390,2.043572,0.000000,0.000000
span_70103,115.441390,2.043572,115.441390,2.043572,0.000000,0.000000
e72809600040328,110.212088,2.059976,110.212088,2.059976,0.000000,0.000000
span_69100,111.629914,-0.047354,111.629914,-0.047354,0.000000,0.000000
span_69101,104.942619,2.070274,104.942619,2.070274,0.000000,0.000000
span_197028,117.337080,4.162138,117.337080,4.162138,0.000000,0.000000
span_71420,106.174846,2.065846,106.174846,2.065846,0.000000,0.000000
span_71414,107.283114,2.069419,107.283114,2.069419,0.000000,0.000000
span_71417,107.283114,2.069419,107.283114,2.069419,0.000000,0.000000
span_71418,106.493126,2.071297,106.493126,2.071297,0.000000,0.000000
span_71419,106.174846,2.065846,106.174846,2.065846,0.000000,0.000000
span_71410,112.725447,-0.046668,112.725447,-0.046668,0.000000,0.000000
span_72742,116.093659,2.047938,116.093659,2.047938,0.000000,0.000000
span_72743,116.093659,2.047938,116.093659,2.047938,0.000000,0.000000
e72805103101112,106.127264,2.064621,106.127264,2.064621,0.000000,0.000000
span_96701,115.993296,4.166506,115.993296,4.166506,0.000000,0.000000
span_96702,115.993296,4.166506,115.993296,4.166506,0.000000,0.000000
span_96700,116.098395,4.168234,116.098395,4.168234,0.000000,0.000000
span_71483,110.816532,-0.057396,110.816532,-0.057396,0.000000,0.000000
span_96709,116.230105,4.169363,116.230105,4.169363,0.000000,0.000000
span_71484,110.816532,-0.057396,110.816532,-0.057396,0.000000,0.000000
span_96707,117.506489,4.169991,117.506489,4.169991,0.000000,0.000000
span_96708,116.230105,4.169363,116.230105,4.169363,0.000000,0.000000
span_71486,112.231796,-0.058289,112.231796,-0.058289,0.000000,0.000000
span_96705,115.815493,4.163767,115.815493,4.163767,0.000000,0.000000
span_96706,117.506489,4.169991,117.506489,4.169991,0.000000,0.000000
span_96703,117.148835,4.169848,117.148835,4.169848,0.000000,0.000000
span_96704,116.132394,4.168759,116.132394,4.168759,0.000000,0.000000
e100b_d1_29x,113.280608,-0.042913,113.280608,-0.042913,0.000000,0.000000
span_185027,116.152064,2.047676,116.152064,2.047676,0.000000,0.000000
span_185028,116.152064,2.047676,116.152064,2.047676,0.000000,0.000000
span_185029,118.436505,4.166342,118.436505,4.166342,0.000000,0.000000
span_71493,112.235882,-0.058193,112.235882,-0.058193,0.000000,0.000000
span_96710,117.506489,4.169991,117.506489,4.169991,0.000000,0.000000
span_173024,111.023879,2.060855,111.023879,2.060855,0.000000,0.000000
span_71472,106.391248,2.067785,106.391248,2.067785,0.000000,0.000000
e72805000040875,115.810071,4.159431,115.810071,4.159431,0.000000,0.000000
span_71473,106.391248,2.067785,106.391248,2.067785,0.000000,0.000000
span_71474,106.391248,2.067785,106.391248,2.067785,0.000000,0.000000
span_71476,110.714290,-0.058294,110.714290,-0.058294,0.000000,0.000000
span_71477,110.714290,-0.058294,110.714290,-0.058294,0.000000,0.000000
span_71478,110.407267,-0.065239,110.407267,-0.065239,0.000000,0.000000
span_71479,110.886624,-0.057276,110.886624,-0.057276,0.000000,0.000000
span_71480,110.890302,-0.057220,110.890302,-0.057220,0.000000,0.000000
span_71481,110.890302,-0.057220,110.890302,-0.057220,0.000000,0.000000
span_71482,110.953574,-0.056164,110.953574,-0.056164,0.000000,0.000000
e72805000038559,116.100107,2.048427,116.100107,2.048427,0.000000,0.000000
span_71469,106.708958,2.072506,106.708958,2.072506,0.000000,0.000000
span_71461,106.739527,2.072122,106.739527,2.072122,0.000000,0.000000
span_71462,106.739527,2.072122,106.739527,2.072122,0.000000,0.000000
span_71463,112.995095,-0.047486,112.995095,-0.047486,0.000000,0.000000
span_71464,112.995095,-0.047486,112.995095,-0.047486,0.000000,0.000000
span_71465,106.708958,2.072506,106.708958,2.072506,0.000000,0.000000
span_71466,106.708958,2.072506,106.708958,2.072506,0.000000,0.000000
span_216701,112.519116,-0.055619,112.519116,-0.055619,0.000000,0.000000
span_71467,106.708958,2.072506,106.708958,2.072506,0.000000,0.000000
span_71468,106.708958,2.072506,106.708958,2.072506,0.000000,0.000000
span_42937,111.019557,-0.053801,111.019557,-0.053801,0.000000,0.000000
span_71470,106.708958,2.072506,106.708958,2.072506,0.000000,0.000000
span_71471,106.708958,2.072506,106.708958,2.072506,0.000000,0.000000
span_71458,106.739527,2.072122,106.739527,2.072122,0.000000,0.000000
span_71459,106.739527,2.072122,106.739527,2.072122,0.000000,0.000000
span_71450,110.210185,2.064467,110.210185,2.064467,0.000000,0.000000
span_71454,113.304623,-0.042449,113.304623,-0.042449,0.000000,0.000000
span_71455,113.277197,-0.042904,113.277197,-0.042904,0.000000,0.000000
span_71457,113.277197,-0.042904,113.277197,-0.042904,0.000000,0.000000
span_71460,106.739527,2.072122,106.739527,2.072122,0.000000,0.000000
span_108814,106.278268,2.070117,106.278268,2.070117,0.000000,0.000000
span_60707,116.670494,-0.034860,116.670494,-0.034860,0.000000,0.000000
e102_d1_90c,112.808282,-0.061205,112.808282,-0.061205,0.000000,0.000000
span_223806,106.278268,2.070117,106.278268,2.070117,0.000000,0.000000
e72804503096515,110.206735,2.061893,110.206735,2.061893,0.000000,0.000000
e72805203095735,117.056681,4.152440,117.056681,4.152440,0.000000,0.000000
e72805000039829,115.767531,2.045922,115.767531,2.045922,0.000000,0.000000
e72805203095712,117.257604,4.155199,117.257604,4.155199,0.000000,0.000000
span_71403,112.947185,-0.043071,112.947185,-0.043071,0.000000,0.000000
span_71405,112.947185,-0.043071,112.947185,-0.043071,0.000000,0.000000
span_71406,112.947185,-0.043071,112.947185,-0.043071,0.000000,0.000000
span_71407,107.252396,2.065507,107.252396,2.065507,0.000000,0.000000
span_71408,112.725447,-0.046668,112.725447,-0.046668,0.000000,0.000000
span_71409,112.725447,-0.046668,112.725447,-0.046668,0.000000,0.000000
e72805200061245,117.621346,4.160453,117.621346,4.160453,0.000000,0.000000
span_71402,112.947185,-0.043071,112.947185,-0.043071,0.000000,0.000000
span_60741,115.494575,2.054381,115.494575,2.054381,0.000000,0.000000
span_60740,115.326065,4.151385,115.326065,4.151385,0.000000,0.000000
span_60742,112.579460,-0.054295,112.579460,-0.054295,0.000000,0.000000
e72805203100818,115.184627,2.056959,115.184627,2.056959,0.000000,0.000000
span_121822,115.054128,2.049793,115.054128,2.049793,0.000000,0.000000
e72805200063882,116.885538,4.162472,116.885538,4.162472,0.000000,0.000000
e72805000045695,116.670494,-0.034860,116.670494,-0.034860,0.000000,0.000000
e103c_d1_39,112.433781,2.057797,112.433781,2.057797,0.000000,0.000000
e72805203095760,116.318900,4.154340,116.318900,4.154340,0.000000,0.000000
span_60738,116.544965,4.157850,116.544965,4.157850,0.000000,0.000000
span_60739,116.509512,4.157309,116.509512,4.157309,0.000000,0.000000
span_226139,110.247370,-0.059604,110.247370,-0.059604,0.000000,0.000000
span_215498,116.317716,4.160288,116.317716,4.160288,0.000000,0.000000
span_64222,114.872276,2.046836,114.872276,2.046836,0.000000,0.000000
span_64221,114.872276,2.046836,114.872276,2.046836,0.000000,0.000000
span_66879,109.847784,-0.063717,109.847784,-0.063717,0.000000,0.000000
e72805103096045,106.282446,2.066946,106.282446,2.066946,0.000000,0.000000
e72804503092989,116.365138,4.155209,116.365138,4.155209,0.000000,0.000000
span_94091,117.329560,4.156023,117.329560,4.156023,0.000000,0.000000
e72804503092995,110.018207,-0.058812,110.018207,-0.058812,0.000000,0.000000
e72804503092992,110.240122,-0.055142,110.240122,-0.055142,0.000000,0.000000
e72804503092991,110.145013,-0.056732,110.145013,-0.056732,0.000000,0.000000
e72805100041504,113.304623,-0.042449,113.304623,-0.042449,0.000000,0.000000
e102_d1_124c1,112.451513,-0.054768,112.451513,-0.054768,0.000000,0.000000
span_226189,116.763059,-0.033794,116.763059,-0.033794,0.000000,0.000000
span_216728,116.921228,4.155045,116.921228,4.155045,0.000000,0.000000
span_70079,114.790578,2.045393,114.790578,2.045393,0.000000,0.000000
span_70078,114.790578,2.045393,114.790578,2.045393,0.000000,0.000000
span_70077,114.870809,2.046606,114.870809,2.046606,0.000000,0.000000
span_70076,115.182528,2.051366,115.182528,2.051366,0.000000,0.000000
span_216729,116.921228,4.155045,116.921228,4.155045,0.000000,0.000000
span_70075,115.182528,2.051366,115.182528,2.051366,0.000000,0.000000
e72805200042120,110.675568,-0.059120,110.675568,-0.059120,0.000000,0.000000
span_70085,114.877910,2.046862,114.877910,2.046862,0.000000,0.000000
span_70084,114.877910,2.046862,114.877910,2.046862,0.000000,0.000000
span_70083,114.877910,2.046862,114.877910,2.046862,0.000000,0.000000
span_70082,114.822339,2.045944,114.822339,2.045944,0.000000,0.000000
span_70081,114.822339,2.045944,114.822339,2.045944,0.000000,0.000000
span_216738,114.980441,2.048583,114.980441,2.048583,0.000000,0.000000
span_70069,117.340742,4.156250,117.340742,4.156250,0.000000,0.000000
span_54838,116.856830,4.152871,116.856830,4.152871,0.000000,0.000000
span_70067,112.174359,-0.054624,112.174359,-0.054624,0.000000,0.000000
span_70066,112.174359,-0.054624,112.174359,-0.054624,0.000000,0.000000
span_54837,116.856830,4.152871,116.856830,4.152871,0.000000,0.000000
span_70065,112.174359,-0.054624,112.174359,-0.054624,0.000000,0.000000
span_54839,116.930009,4.154111,116.930009,4.154111,0.000000,0.000000
span_216730,116.921228,4.155045,116.921228,4.155045,0.000000,0.000000
span_216734,114.926865,2.047752,114.926865,2.047752,0.000000,0.000000
span_102600,117.362219,4.156590,117.362219,4.156590,0.000000,0.000000
span_70074,113.706488,2.062655,113.706488,2.062655,0.000000,0.000000
e100c_d1_15_d1_v1,106.480243,2.066544,106.480243,2.066544,0.000000,0.000000
span_70073,113.424086,2.057644,113.424086,2.057644,0.000000,0.000000
span_70072,117.249375,4.154817,117.249375,4.154817,0.000000,0.000000
span_70071,117.249375,4.154817,117.249375,4.154817,0.000000,0.000000
span_70070,117.340742,4.156250,117.340742,4.156250,0.000000,0.000000
e72805100040225,106.837194,2.071727,106.837194,2.071727,0.000000,0.000000
e72805000062158,117.300878,-0.039748,117.300878,-0.039748,0.000000,0.000000
span_70061,117.337116,4.156156,117.337116,4.156156,0.000000,0.000000
span_215424,106.521984,2.070684,106.521984,2.070684,0.000000,0.000000
span_54862,113.858285,2.057738,113.858285,2.057738,0.000000,0.000000
span_102633,117.638267,-0.034280,117.638267,-0.034280,0.000000,0.000000
span_228759,115.876420,4.157385,115.876420,4.157385,0.000000,0.000000
span_65519,113.553639,2.057403,113.553639,2.057403,0.000000,0.000000
span_228753,113.683035,2.059839,113.683035,2.059839,0.000000,0.000000
span_215443,111.379681,-0.044682,111.379681,-0.044682,0.000000,0.000000
e72805003095466,115.319291,2.043163,115.319291,2.043163,0.000000,0.000000
e72805100040251,111.134642,-0.048869,111.134642,-0.048869,0.000000,0.000000
e72805003096788,117.141711,-0.042257,117.141711,-0.042257,0.000000,0.000000
span_96688,110.727851,-0.056746,110.727851,-0.056746,0.000000,0.000000
span_96689,110.727851,-0.056746,110.727851,-0.056746,0.000000,0.000000
span_54849,117.201888,4.158738,117.201888,4.158738,0.000000,0.000000
span_70099,115.661076,2.049132,115.661076,2.049132,0.000000,0.000000
span_226110,117.225605,4.159593,117.225605,4.159593,0.000000,0.000000
span_70098,115.450429,2.045567,115.450429,2.045567,0.000000,0.000000
span_70097,115.450429,2.045567,115.450429,2.045567,0.000000,0.000000
span_54845,117.207963,4.158680,117.207963,4.158680,0.000000,0.000000
span_216786,109.766381,-0.061905,109.766381,-0.061905,0.000000,0.000000
span_54844,116.873094,4.153377,116.873094,4.153377,0.000000,0.000000
span_54847,117.217458,4.158939,117.217458,4.158939,0.000000,0.000000
span_54846,117.207963,4.158680,117.207963,4.158680,0.000000,0.000000
span_54841,116.899318,4.153718,116.899318,4.153718,0.000000,0.000000
span_54843,116.873094,4.153377,116.873094,4.153377,0.000000,0.000000
span_54842,116.899318,4.153718,116.899318,4.153718,0.000000,0.000000
span_215451,105.878217,2.063838,105.878217,2.063838,0.000000,0.000000
span_96693,116.851403,4.155256,116.851403,4.155256,0.000000,0.000000
span_96694,116.774979,4.154012,116.774979,4.154012,0.000000,0.000000
span_228773,105.675425,2.074031,105.675425,2.074031,0.000000,0.000000
span_96691,110.552273,-0.059788,110.552273,-0.059788,0.000000,0.000000
span_96692,116.851403,4.155256,116.851403,4.155256,0.000000,0.000000
span_96690,110.378640,-0.062591,110.378640,-0.062591,0.000000,0.000000
span_226115,116.180048,2.049562,116.180048,2.049562,0.000000,0.000000
span_228777,117.271508,4.167888,117.271508,4.167888,0.000000,0.000000
span_96699,116.098395,4.168234,116.098395,4.168234,0.000000,0.000000
span_70089,115.055274,2.049744,115.055274,2.049744,0.000000,0.000000
span_96697,115.808359,4.163704,115.808359,4.163704,0.000000,0.000000
span_54859,113.511127,-0.056584,113.511127,-0.056584,0.000000,0.000000
span_228761,115.457221,2.059504,115.457221,2.059504,0.000000,0.000000
span_70088,115.055274,2.049744,115.055274,2.049744,0.000000,0.000000
span_96698,115.808359,4.163704,115.808359,4.163704,0.000000,0.000000
span_70087,115.055274,2.049744,115.055274,2.049744,0.000000,0.000000
span_96695,115.993208,4.166641,115.993208,4.166641,0.000000,0.000000
span_70086,115.131084,2.050935,115.131084,2.050935,0.000000,0.000000
span_96696,115.993208,4.166641,115.993208,4.166641,0.000000,0.000000
span_54856,117.441556,4.158197,117.441556,4.158197,0.000000,0.000000
span_54858,113.511127,-0.056584,113.511127,-0.056584,0.000000,0.000000
span_54857,113.592701,-0.057011,113.592701,-0.057011,0.000000,0.000000
span_54852,117.237942,4.159339,117.237942,4.159339,0.000000,0.000000
span_54854,113.897405,-0.051763,113.897405,-0.051763,0.000000,0.000000
span_54853,117.234947,4.159430,117.234947,4.159430,0.000000,0.000000
span_54861,113.858285,2.057738,113.858285,2.057738,0.000000,0.000000
span_54860,113.798253,-0.051655,113.798253,-0.051655,0.000000,0.000000
span_70094,117.183222,4.161053,117.183222,4.161053,0.000000,0.000000
span_228763,113.280608,-0.042913,113.280608,-0.042913,0.000000,0.000000
span_70092,117.126939,4.160200,117.126939,4.160200,0.000000,0.000000
span_226105,117.299230,4.162128,117.299230,4.162128,0.000000,0.000000
span_226107,109.750259,-0.066028,109.750259,-0.066028,0.000000,0.000000
span_70090,115.055274,2.049744,115.055274,2.049744,0.000000,0.000000
e72805100040280,112.095608,-0.044619,112.095608,-0.044619,0.000000,0.000000
span_57018,110.246172,2.064786,110.246172,2.064786,0.000000,0.000000
span_57019,110.246172,2.064786,110.246172,2.064786,0.000000,0.000000
span_57028,114.933542,2.044647,114.933542,2.044647,0.000000,0.000000
span_144636,110.517877,-0.056360,110.517877,-0.056360,0.000000,0.000000
span_57025,110.022467,2.060747,110.022467,2.060747,0.000000,0.000000
span_144635,110.517877,-0.056360,110.517877,-0.056360,0.000000,0.000000
e101e_d1_6,115.591724,2.042513,115.591724,2.042513,0.000000,0.000000
span_144634,110.517877,-0.056360,110.517877,-0.056360,0.000000,0.000000
span_57023,110.022467,2.060747,110.022467,2.060747,0.000000,0.000000
span_57024,110.022467,2.060747,110.022467,2.060747,0.000000,0.000000
span_144633,110.517877,-0.056360,110.517877,-0.056360,0.000000,0.000000
span_57021,110.022467,2.060747,110.022467,2.060747,0.000000,0.000000
span_57022,110.022467,2.060747,110.022467,2.060747,0.000000,0.000000
span_57020,110.246172,2.064786,110.246172,2.064786,0.000000,0.000000
span_72640,112.963581,-0.049718,112.963581,-0.049718,0.000000,0.000000
span_57029,114.933542,2.044647,114.933542,2.044647,0.000000,0.000000
span_57038,116.981212,4.156253,116.981212,4.156253,0.000000,0.000000
span_57039,117.381166,4.162510,117.381166,4.162510,0.000000,0.000000
span_57036,114.726228,2.043649,114.726228,2.043649,0.000000,0.000000
span_58367,116.027076,4.153065,116.027076,4.153065,0.000000,0.000000
span_57037,116.981212,4.156253,116.981212,4.156253,0.000000,0.000000
span_57034,114.759436,2.043959,114.759436,2.043959,0.000000,0.000000
span_57035,114.759436,2.043959,114.759436,2.043959,0.000000,0.000000
span_57032,115.171240,2.048716,115.171240,2.048716,0.000000,0.000000
span_58364,109.830321,-0.055441,109.830321,-0.055441,0.000000,0.000000
span_57033,114.958624,2.046298,114.958624,2.046298,0.000000,0.000000
span_57030,114.933542,2.044647,114.933542,2.044647,0.000000,0.000000
span_57031,114.933542,2.044647,114.933542,2.044647,0.000000,0.000000
span_72635,117.876001,4.173766,117.876001,4.173766,0.000000,0.000000
span_72636,113.670025,-0.041136,113.670025,-0.041136,0.000000,0.000000
span_72637,113.670025,-0.041136,113.670025,-0.041136,0.000000,0.000000
span_72638,113.179548,-0.047909,113.179548,-0.047909,0.000000,0.000000
span_72630,113.148631,-0.045777,113.148631,-0.045777,0.000000,0.000000
span_72631,113.235063,-0.044438,113.235063,-0.044438,0.000000,0.000000
span_72632,112.948950,-0.048572,112.948950,-0.048572,0.000000,0.000000
span_72633,113.127933,-0.045557,113.127933,-0.045557,0.000000,0.000000
span_72634,113.251948,-0.043413,113.251948,-0.043413,0.000000,0.000000
span_72625,113.212382,-0.045744,113.212382,-0.045744,0.000000,0.000000
span_72627,113.346413,-0.043050,113.346413,-0.043050,0.000000,0.000000
span_72628,113.148631,-0.045777,113.148631,-0.045777,0.000000,0.000000
span_72629,113.148631,-0.045777,113.148631,-0.045777,0.000000,0.000000
span_72620,113.483102,-0.040798,113.483102,-0.040798,0.000000,0.000000
span_57009,109.823506,2.057946,109.823506,2.057946,0.000000,0.000000
span_72621,113.483102,-0.040798,113.483102,-0.040798,0.000000,0.000000
span_72622,113.009893,-0.048525,113.009893,-0.048525,0.000000,0.000000
span_72623,113.569686,-0.039595,113.569686,-0.039595,0.000000,0.000000
span_57016,109.645495,2.055152,109.645495,2.055152,0.000000,0.000000
span_57017,110.246172,2.064786,110.246172,2.064786,0.000000,0.000000
span_57014,109.813080,2.057907,109.813080,2.057907,0.000000,0.000000
span_57015,109.813080,2.057907,109.813080,2.057907,0.000000,0.000000
span_57013,109.813080,2.057907,109.813080,2.057907,0.000000,0.000000
span_57011,109.823506,2.057946,109.823506,2.057946,0.000000,0.000000
span_69049,116.407182,4.169531,116.407182,4.169531,0.000000,0.000000
span_69048,116.407182,4.169531,116.407182,4.169531,0.000000,0.000000
span_69044,116.128443,-0.035784,116.128443,-0.035784,0.000000,0.000000
span_69046,116.222932,4.163461,116.222932,4.163461,0.000000,0.000000
span_69041,116.283104,-0.033435,116.283104,-0.033435,0.000000,0.000000
span_69040,116.283104,-0.033435,116.283104,-0.033435,0.000000,0.000000
span_69043,116.283104,-0.033435,116.283104,-0.033435,0.000000,0.000000
span_69042,116.283104,-0.033435,116.283104,-0.033435,0.000000,0.000000
e72805000040977,117.333901,4.162135,117.333901,4.162135,0.000000,0.000000
span_69056,113.289043,-0.046905,113.289043,-0.046905,0.000000,0.000000
span_69055,113.426026,-0.041517,113.426026,-0.041517,0.000000,0.000000
span_69052,113.426026,-0.041517,113.426026,-0.041517,0.000000,0.000000
span_71352,116.900123,4.162676,116.900123,4.162676,0.000000,0.000000
span_69051,113.294191,-0.043664,113.294191,-0.043664,0.000000,0.000000
span_69054,113.426026,-0.041517,113.426026,-0.041517,0.000000,0.000000
span_69053,113.426026,-0.041517,113.426026,-0.041517,0.000000,0.000000
span_69050,113.294191,-0.043664,113.294191,-0.043664,0.000000,0.000000
tran_75249,117.458882,4.158138,117.458882,4.158138,0.000000,0.000000
span_217916,113.513360,-0.040150,113.513360,-0.040150,0.000000,0.000000
span_58373,117.510127,-0.036433,117.510127,-0.036433,0.000000,0.000000
span_58372,116.399857,-0.037709,116.399857,-0.037709,0.000000,0.000000
span_58371,116.046491,2.047234,116.046491,2.047234,0.000000,0.000000
span_57040,117.381166,4.162510,117.381166,4.162510,0.000000,0.000000
span_58370,116.384629,2.052511,116.384629,2.052511,0.000000,0.000000
span_72668,118.446318,4.165399,118.446318,4.165399,0.000000,0.000000
span_69038,116.283104,-0.033435,116.283104,-0.033435,0.000000,0.000000
span_72669,118.446318,4.165399,118.446318,4.165399,0.000000,0.000000
span_69037,116.061808,2.046919,116.061808,2.046919,0.000000,0.000000
span_69039,116.283104,-0.033435,116.283104,-0.033435,0.000000,0.000000
span_144625,110.517877,-0.056360,110.517877,-0.056360,0.000000,0.000000
span_117024,109.165287,-0.059673,109.165287,-0.059673,0.000000,0.000000
e72805000039954,115.669314,2.048887,115.669314,2.048887,0.000000,0.000000
e101d_d1_39_d1_1_d1_v3,116.278515,2.051327,116.278515,2.051327,0.000000,0.000000
e72805203095859,114.670125,2.043134,114.670125,2.043134,0.000000,0.000000
e72804500040537,109.793667,2.055794,109.793667,2.055794,0.000000,0.000000
e103d_d1_46,109.181544,-0.058278,109.181544,-0.058278,0.000000,0.000000
e103d_d1_47,109.167744,-0.058398,109.167744,-0.058398,0.000000,0.000000
e103d_d1_52,109.349896,-0.054850,109.349896,-0.054850,0.000000,0.000000
e72805203095833,112.246576,2.053210,112.246576,2.053210,0.000000,0.000000
span_72613,115.197578,2.051296,115.197578,2.051296,0.000000,0.000000
span_72614,115.173476,2.051040,115.173476,2.051040,0.000000,0.000000
span_72615,115.182528,2.051366,115.182528,2.051366,0.000000,0.000000
span_72616,115.182528,2.051366,115.182528,2.051366,0.000000,0.000000
span_72610,115.012702,2.048180,115.012702,2.048180,0.000000,0.000000
span_72611,115.012702,2.048180,115.012702,2.048180,0.000000,0.000000
span_72612,115.012702,2.048180,115.012702,2.048180,0.000000,0.000000
span_61956,116.571533,4.158517,116.571533,4.158517,0.000000,0.000000
e72805100058453,113.341750,-0.042907,113.341750,-0.042907,0.000000,0.000000
span_72602,114.645878,2.044112,114.645878,2.044112,0.000000,0.000000
span_72603,114.645878,2.044112,114.645878,2.044112,0.000000,0.000000
span_72604,114.543276,2.042643,114.543276,2.042643,0.000000,0.000000
span_72605,114.543276,2.042643,114.543276,2.042643,0.000000,0.000000
span_72606,114.523828,2.042469,114.523828,2.042469,0.000000,0.000000
span_209440,116.382133,4.167123,116.382133,4.167123,0.000000,0.000000
span_209441,116.382133,4.167123,116.382133,4.167123,0.000000,0.000000
span_72607,114.920350,2.048810,114.920350,2.048810,0.000000,0.000000
span_72608,114.748216,2.046095,114.748216,2.046095,0.000000,0.000000
span_72609,114.883063,2.046095,114.883063,2.046095,0.000000,0.000000
span_72600,114.847875,2.047110,114.847875,2.047110,0.000000,0.000000
span_72601,114.557741,2.042604,114.557741,2.042604,0.000000,0.000000
e72805203095872,117.217458,4.158939,117.217458,4.158939,0.000000,0.000000
span_60609,106.716135,2.069193,106.716135,2.069193,0.000000,0.000000
span_60612,105.656282,2.067482,105.656282,2.067482,0.000000,0.000000
e72805203095875,113.266079,2.056662,113.266079,2.056662,0.000000,0.000000
span_60611,111.875653,-0.048712,111.875653,-0.048712,0.000000,0.000000
span_60610,112.496856,-0.044084,112.496856,-0.044084,0.000000,0.000000
e72805200061166,112.822702,-0.055724,112.822702,-0.055724,0.000000,0.000000
span_53458,113.277197,-0.042904,113.277197,-0.042904,0.000000,0.000000
span_215350,116.693489,-0.033735,116.693489,-0.033735,0.000000,0.000000
span_137429,112.670645,2.058490,112.670645,2.058490,0.000000,0.000000
span_64123,115.834761,4.162383,115.834761,4.162383,0.000000,0.000000
span_226000,117.192907,4.154008,117.192907,4.154008,0.000000,0.000000
span_64120,115.800877,4.161628,115.800877,4.161628,0.000000,0.000000
span_215369,116.754244,4.160203,116.754244,4.160203,0.000000,0.000000
span_226001,116.946793,4.155267,116.946793,4.155267,0.000000,0.000000
span_229997,117.182502,4.161001,117.182502,4.161001,0.000000,0.000000
span_229995,116.982044,4.154235,116.982044,4.154235,0.000000,0.000000
span_64119,115.800877,4.161628,115.800877,4.161628,0.000000,0.000000
span_64118,116.253787,4.168539,116.253787,4.168539,0.000000,0.000000
span_64117,116.253787,4.168539,116.253787,4.168539,0.000000,0.000000
span_215388,115.584518,2.047772,115.584518,2.047772,0.000000,0.000000
e72805000043127,116.932138,4.156214,116.932138,4.156214,0.000000,0.000000
span_215399,116.367268,2.050983,116.367268,2.050983,0.000000,0.000000
span_226058,117.536226,-0.036299,117.536226,-0.036299,0.000000,0.000000
span_65492,116.080877,2.047324,116.080877,2.047324,0.000000,0.000000
span_226049,117.007637,4.155930,117.007637,4.155930,0.000000,0.000000
span_64128,113.399664,-0.041731,113.399664,-0.041731,0.000000,0.000000
span_71285,115.309751,2.043335,115.309751,2.043335,0.000000,0.000000
span_71286,115.309751,2.043335,115.309751,2.043335,0.000000,0.000000
span_71287,115.549963,2.047181,115.549963,2.047181,0.000000,0.000000
span_71288,115.549963,2.047181,115.549963,2.047181,0.000000,0.000000
span_71289,115.584518,2.047772,115.584518,2.047772,0.000000,0.000000
span_216601,115.447398,4.153189,115.447398,4.153189,0.000000,0.000000
span_229925,115.586203,2.047948,115.586203,2.047948,0.000000,0.000000
span_71290,115.584518,2.047772,115.584518,2.047772,0.000000,0.000000
span_71291,115.584518,2.047772,115.584518,2.047772,0.000000,0.000000
span_71292,115.584518,2.047772,115.584518,2.047772,0.000000,0.000000
span_71293,115.584518,2.047772,115.584518,2.047772,0.000000,0.000000
span_71294,115.584518,2.047772,115.584518,2.047772,0.000000,0.000000
span_71295,115.416079,2.045158,115.416079,2.045158,0.000000,0.000000
e72805100040318,106.805545,2.072435,106.805545,2.072435,0.000000,0.000000
span_229924,115.586203,2.047948,115.586203,2.047948,0.000000,0.000000
span_71274,110.049184,2.061832,110.049184,2.061832,0.000000,0.000000
span_71275,109.991652,2.060860,109.991652,2.060860,0.000000,0.000000
span_71277,115.369358,2.044130,115.369358,2.044130,0.000000,0.000000
span_71278,115.369020,2.044144,115.369020,2.044144,0.000000,0.000000
span_71279,115.611295,2.048040,115.611295,2.048040,0.000000,0.000000
span_229915,115.358729,4.152497,115.358729,4.152497,0.000000,0.000000
span_71280,115.611295,2.048040,115.611295,2.048040,0.000000,0.000000
span_71281,115.583690,2.047658,115.583690,2.047658,0.000000,0.000000
span_71282,115.450429,2.045567,115.450429,2.045567,0.000000,0.000000
span_71283,115.354532,2.043985,115.354532,2.043985,0.000000,0.000000
span_71284,115.354532,2.043985,115.354532,2.043985,0.000000,0.000000
span_217958,115.845599,4.154563,115.845599,4.154563,0.000000,0.000000
span_217957,116.224672,4.160520,116.224672,4.160520,0.000000,0.000000
span_72594,114.670125,2.043134,114.670125,2.043134,0.000000,0.000000
span_71263,110.334050,-0.063494,110.334050,-0.063494,0.000000,0.000000
span_71264,110.000900,2.061066,110.000900,2.061066,0.000000,0.000000
span_72595,114.670125,2.043134,114.670125,2.043134,0.000000,0.000000
span_71265,110.000900,2.061066,110.000900,2.061066,0.000000,0.000000
span_71266,110.000900,2.061066,110.000900,2.061066,0.000000,0.000000
span_71267,110.000900,2.061066,110.000900,2.061066,0.000000,0.000000
span_72598,114.769574,2.045599,114.769574,2.045599,0.000000,0.000000
span_217956,115.845599,4.154563,115.845599,4.154563,0.000000,0.000000
span_71268,110.000900,2.061066,110.000900,2.061066,0.000000,0.000000
span_72599,114.847875,2.047110,114.847875,2.047110,0.000000,0.000000
span_71269,110.000900,2.061066,110.000900,2.061066,0.000000,0.000000
span_71270,110.049184,2.061832,110.049184,2.061832,0.000000,0.000000
span_71271,110.049184,2.061832,110.049184,2.061832,0.000000,0.000000
span_71272,110.049184,2.061832,110.049184,2.061832,0.000000,0.000000
span_71273,110.049184,2.061832,110.049184,2.061832,0.000000,0.000000
span_204643,110.729862,-0.057545,110.729862,-0.057545,0.000000,0.000000
span_204644,110.729862,-0.057545,110.729862,-0.057545,0.000000,0.000000
span_204645,110.729862,-0.057545,110.729862,-0.057545,0.000000,0.000000
span_204646,110.919027,-0.054329,110.919027,-0.054329,0.000000,0.000000
span_229945,116.199527,4.156981,116.199527,4.156981,0.000000,0.000000
span_204642,110.729862,-0.057545,110.729862,-0.057545,0.000000,0.000000
span_229944,116.199527,4.156981,116.199527,4.156981,0.000000,0.000000
span_215309,113.553639,2.057403,113.553639,2.057403,0.000000,0.000000
e72805200043325,109.297909,-0.056989,109.297909,-0.056989,0.000000,0.000000
span_71252,115.283864,4.147129,115.283864,4.147129,0.000000,0.000000
span_72584,116.842717,4.162047,116.842717,4.162047,0.000000,0.000000
span_71253,115.283864,4.147129,115.283864,4.147129,0.000000,0.000000
span_72585,116.842717,4.162047,116.842717,4.162047,0.000000,0.000000
span_71254,115.465567,4.149783,115.465567,4.149783,0.000000,0.000000
span_71255,115.465567,4.149783,115.465567,4.149783,0.000000,0.000000
span_72586,116.657178,4.159477,116.657178,4.159477,0.000000,0.000000
span_72587,116.892769,4.163266,116.892769,4.163266,0.000000,0.000000
span_71256,115.465567,4.149783,115.465567,4.149783,0.000000,0.000000
span_71257,115.465567,4.149783,115.465567,4.149783,0.000000,0.000000
span_72588,116.892769,4.163266,116.892769,4.163266,0.000000,0.000000
span_216635,117.202062,4.161217,117.202062,4.161217,0.000000,0.000000
span_71258,115.465567,4.149783,115.465567,4.149783,0.000000,0.000000
span_216634,115.935146,2.044690,115.935146,2.044690,0.000000,0.000000
span_71259,112.670645,2.058490,112.670645,2.058490,0.000000,0.000000
span_72591,117.397692,-0.038871,117.397692,-0.038871,0.000000,0.000000
span_71260,110.334050,-0.063494,110.334050,-0.063494,0.000000,0.000000
span_71261,110.334050,-0.063494,110.334050,-0.063494,0.000000,0.000000
span_72592,117.397692,-0.038871,117.397692,-0.038871,0.000000,0.000000
span_72593,116.383148,4.155328,116.383148,4.155328,0.000000,0.000000
span_71262,110.334050,-0.063494,110.334050,-0.063494,0.000000,0.000000
span_229933,116.229249,-0.034530,116.229249,-0.034530,0.000000,0.000000
e72805000049273,115.851628,2.043631,115.851628,2.043631,0.000000,0.000000
span_229967,117.763609,-0.029541,117.763609,-0.029541,0.000000,0.000000
e100b_d1_11f,113.552033,-0.042797,113.552033,-0.042797,0.000000,0.000000
span_215328,116.043354,4.149143,116.043354,4.149143,0.000000,0.000000
span_215329,116.043354,4.149143,116.043354,4.149143,0.000000,0.000000
span_216652,115.112464,-0.039947,115.112464,-0.039947,0.000000,0.000000
span_215320,114.882371,2.046070,114.882371,2.046070,0.000000,0.000000
span_215321,114.882371,2.046070,114.882371,2.046070,0.000000,0.000000
span_216657,105.199090,2.068734,105.199090,2.068734,0.000000,0.000000
span_53421,116.705823,-0.035120,116.705823,-0.035120,0.000000,0.000000
span_54752,117.595703,-0.035281,117.595703,-0.035281,0.000000,0.000000
span_216656,111.094721,-0.050599,111.094721,-0.050599,0.000000,0.000000
span_217987,112.808282,-0.061205,112.808282,-0.061205,0.000000,0.000000
span_229958,116.877880,4.156298,116.877880,4.156298,0.000000,0.000000
e72805003101832,116.140358,-0.039945,116.140358,-0.039945,0.000000,0.000000
span_214002,113.905676,2.061184,113.905676,2.061184,0.000000,0.000000
span_214003,113.905676,2.061184,113.905676,2.061184,0.000000,0.000000
span_215331,116.061808,2.046919,116.061808,2.046919,0.000000,0.000000
span_214004,113.905676,2.061184,113.905676,2.061184,0.000000,0.000000
span_217998,110.319758,-0.056545,110.319758,-0.056545,0.000000,0.000000
span_215330,116.061808,2.046919,116.061808,2.046919,0.000000,0.000000
e72804500063287,110.923468,2.063941,110.923468,2.063941,0.000000,0.000000
span_71296,115.416079,2.045158,115.416079,2.045158,0.000000,0.000000
span_71297,115.292702,2.043252,115.292702,2.043252,0.000000,0.000000
span_71298,115.292702,2.043252,115.292702,2.043252,0.000000,0.000000
span_71299,115.292702,2.043252,115.292702,2.043252,0.000000,0.000000
span_69368,115.371975,4.152925,115.371975,4.152925,0.000000,0.000000
span_69367,115.371975,4.152925,115.371975,4.152925,0.000000,0.000000
span_69364,115.591267,4.156326,115.591267,4.156326,0.000000,0.000000
span_69365,115.591267,4.156326,115.591267,4.156326,0.000000,0.000000
span_69360,112.151084,-0.050202,112.151084,-0.050202,0.000000,0.000000
span_69362,115.534509,4.154989,115.534509,4.154989,0.000000,0.000000
span_57388,116.845900,-0.033382,116.845900,-0.033382,0.000000,0.000000
span_57389,115.944153,2.057136,115.944153,2.057136,0.000000,0.000000
span_57386,116.058830,4.167415,116.058830,4.167415,0.000000,0.000000
span_57387,115.957086,2.057300,115.957086,2.057300,0.000000,0.000000
span_57384,115.932432,4.165366,115.932432,4.165366,0.000000,0.000000
e72805103102219,106.036617,2.075503,106.036617,2.075503,0.000000,0.000000
span_57385,115.932432,4.165366,115.932432,4.165366,0.000000,0.000000
span_57382,115.932432,4.165366,115.932432,4.165366,0.000000,0.000000
span_57383,115.932432,4.165366,115.932432,4.165366,0.000000,0.000000
span_69379,117.214792,-0.041572,117.214792,-0.041572,0.000000,0.000000
span_69378,116.314717,2.047012,116.314717,2.047012,0.000000,0.000000
span_96996,117.445236,4.157935,117.445236,4.157935,0.000000,0.000000
span_96997,115.276849,2.057321,115.276849,2.057321,0.000000,0.000000
span_96994,117.458882,4.158138,117.458882,4.158138,0.000000,0.000000
span_96995,117.116934,4.152794,117.116934,4.152794,0.000000,0.000000
span_69374,117.312229,-0.040062,117.312229,-0.040062,0.000000,0.000000
span_69377,116.344965,2.047465,116.344965,2.047465,0.000000,0.000000
span_96993,117.458882,4.158138,117.458882,4.158138,0.000000,0.000000
e72805203095585,113.457746,-0.053572,113.457746,-0.053572,0.000000,0.000000
span_71670,117.321224,-0.039641,117.321224,-0.039641,0.000000,0.000000
span_69371,115.576855,4.156168,115.576855,4.156168,0.000000,0.000000
span_71671,117.719173,-0.033252,117.719173,-0.033252,0.000000,0.000000
span_69370,115.576855,4.156168,115.576855,4.156168,0.000000,0.000000
span_71672,117.451577,-0.037327,117.451577,-0.037327,0.000000,0.000000
span_69373,117.664419,-0.034565,117.664419,-0.034565,0.000000,0.000000
e72805200039919,110.329956,-0.057135,110.329956,-0.057135,0.000000,0.000000
span_57395,116.926720,4.164560,116.926720,4.164560,0.000000,0.000000
span_57396,117.199527,4.169458,117.199527,4.169458,0.000000,0.000000
span_57393,116.242414,-0.040017,116.242414,-0.040017,0.000000,0.000000
span_57392,116.404202,-0.037527,116.404202,-0.037527,0.000000,0.000000
span_71667,116.995163,2.052960,116.995163,2.052960,0.000000,0.000000
span_71668,116.995163,2.052960,116.995163,2.052960,0.000000,0.000000
span_69345,109.653101,-0.058331,109.653101,-0.058331,0.000000,0.000000
span_71669,117.321224,-0.039641,117.321224,-0.039641,0.000000,0.000000
span_69347,109.910456,-0.054020,109.910456,-0.054020,0.000000,0.000000
span_69342,112.591426,2.057039,112.591426,2.057039,0.000000,0.000000
span_69341,112.591426,2.057039,112.591426,2.057039,0.000000,0.000000
span_69343,109.653101,-0.058331,109.653101,-0.058331,0.000000,0.000000
span_69340,112.163194,2.050206,112.163194,2.050206,0.000000,0.000000
span_71665,116.995163,2.052960,116.995163,2.052960,0.000000,0.000000
span_71666,116.995163,2.052960,116.995163,2.052960,0.000000,0.000000
span_69339,112.163194,2.050206,112.163194,2.050206,0.000000,0.000000
span_69338,112.670645,2.058490,112.670645,2.058490,0.000000,0.000000
span_71656,116.456441,2.048531,116.456441,2.048531,0.000000,0.000000
span_69357,118.070851,4.163926,118.070851,4.163926,0.000000,0.000000
span_71657,116.456441,2.048531,116.456441,2.048531,0.000000,0.000000
span_69356,118.070851,4.163926,118.070851,4.163926,0.000000,0.000000
span_69359,112.389538,-0.046736,112.389538,-0.046736,0.000000,0.000000
span_71658,116.456441,2.048531,116.456441,2.048531,0.000000,0.000000
span_69358,116.995163,2.052960,116.995163,2.052960,0.000000,0.000000
e72805100041289,105.883896,2.075565,105.883896,2.075565,0.000000,0.000000
span_71659,116.661761,2.052002,116.661761,2.052002,0.000000,0.000000
span_69353,117.248073,2.055660,117.248073,2.055660,0.000000,0.000000
span_69352,111.370645,-0.053812,111.370645,-0.053812,0.000000,0.000000
span_69355,118.070851,4.163926,118.070851,4.163926,0.000000,0.000000
span_69354,117.531931,-0.036568,117.531931,-0.036568,0.000000,0.000000
span_71650,108.712155,-0.062019,108.712155,-0.062019,0.000000,0.000000
span_71651,108.712155,-0.062019,108.712155,-0.062019,0.000000,0.000000
span_71654,116.832760,2.051903,116.832760,2.051903,0.000000,0.000000
span_71655,116.832760,2.051903,116.832760,2.051903,0.000000,0.000000
span_57379,116.145608,4.161827,116.145608,4.161827,0.000000,0.000000
span_57377,116.117722,4.161248,116.117722,4.161248,0.000000,0.000000
e72805000063747,117.561100,-0.036171,117.561100,-0.036171,0.000000,0.000000
span_57378,116.300042,4.164076,116.300042,4.164076,0.000000,0.000000
span_57375,116.812477,4.154708,116.812477,4.154708,0.000000,0.000000
span_57376,116.812477,4.154708,116.812477,4.154708,0.000000,0.000000
span_57373,116.968691,4.157277,116.968691,4.157277,0.000000,0.000000
span_57374,116.839106,4.155109,116.839106,4.155109,0.000000,0.000000
span_57371,116.927599,4.156598,116.927599,4.156598,0.000000,0.000000
span_57370,116.961092,4.157111,116.961092,4.157111,0.000000,0.000000
span_70397,114.870809,2.046606,114.870809,2.046606,0.000000,0.000000
span_68079,116.801428,-0.032898,116.801428,-0.032898,0.000000,0.000000
e72805000062413,116.294304,-0.034891,116.294304,-0.034891,0.000000,0.000000
span_56097,115.535756,4.155333,115.535756,4.155333,0.000000,0.000000
e72805203104109,116.117722,4.161248,116.117722,4.161248,0.000000,0.000000
span_69389,115.628602,2.045520,115.628602,2.045520,0.000000,0.000000
span_69385,117.401489,-0.038685,117.401489,-0.038685,0.000000,0.000000
span_69388,115.556354,2.043660,115.556354,2.043660,0.000000,0.000000
span_69382,116.678508,2.052872,116.678508,2.052872,0.000000,0.000000
span_69381,116.678508,2.052872,116.678508,2.052872,0.000000,0.000000
span_69380,117.214792,-0.041572,117.214792,-0.041572,0.000000,0.000000
e72805200040916,109.808695,-0.055687,109.808695,-0.055687,0.000000,0.000000
span_69390,115.986756,2.051187,115.986756,2.051187,0.000000,0.000000
e72805200040981,116.693489,-0.033735,116.693489,-0.033735,0.000000,0.000000
e72809600041497,111.990535,2.062516,111.990535,2.062516,0.000000,0.000000
span_99184,117.362219,4.156590,117.362219,4.156590,0.000000,0.000000
e72804503095419,108.681367,-0.065445,108.681367,-0.065445,0.000000,0.000000
span_99185,117.362219,4.156590,117.362219,4.156590,0.000000,0.000000
span_99186,117.362219,4.156590,117.362219,4.156590,0.000000,0.000000
span_215197,109.910456,-0.054020,109.910456,-0.054020,0.000000,0.000000
span_215196,109.910456,-0.054020,109.910456,-0.054020,0.000000,0.000000
span_99180,117.362219,4.156590,117.362219,4.156590,0.000000,0.000000
span_99181,117.362219,4.156590,117.362219,4.156590,0.000000,0.000000
span_99182,117.362219,4.156590,117.362219,4.156590,0.000000,0.000000
span_99183,117.362219,4.156590,117.362219,4.156590,0.000000,0.000000
span_72921,116.139769,4.165341,116.139769,4.165341,0.000000,0.000000
span_72922,116.139769,4.165341,116.139769,4.165341,0.000000,0.000000
span_72923,116.139769,4.165341,116.139769,4.165341,0.000000,0.000000
span_72924,114.102859,-0.039158,114.102859,-0.039158,0.000000,0.000000
span_72925,113.677984,-0.045033,113.677984,-0.045033,0.000000,0.000000
span_72926,113.572068,-0.044787,113.572068,-0.044787,0.000000,0.000000
span_72927,114.078601,-0.039077,114.078601,-0.039077,0.000000,0.000000
span_99195,117.418116,4.157426,117.418116,4.157426,0.000000,0.000000
span_99196,117.418116,4.157426,117.418116,4.157426,0.000000,0.000000
span_99197,117.418116,4.157426,117.418116,4.157426,0.000000,0.000000
span_163425,116.913542,4.162569,116.913542,4.162569,0.000000,0.000000
span_163424,116.913542,4.162569,116.913542,4.162569,0.000000,0.000000
span_99194,117.418116,4.157426,117.418116,4.157426,0.000000,0.000000
span_72912,117.404957,4.156820,117.404957,4.156820,0.000000,0.000000
span_72913,117.573726,4.160674,117.573726,4.160674,0.000000,0.000000
span_72914,117.573726,4.160674,117.573726,4.160674,0.000000,0.000000
span_72917,117.381131,4.157962,117.381131,4.157962,0.000000,0.000000
span_223606,109.750259,-0.066028,109.750259,-0.066028,0.000000,0.000000
span_72918,117.381131,4.157962,117.381131,4.157962,0.000000,0.000000
span_72919,117.381131,4.157962,117.381131,4.157962,0.000000,0.000000
span_72900,115.325883,2.057900,115.325883,2.057900,0.000000,0.000000
span_72901,115.325883,2.057900,115.325883,2.057900,0.000000,0.000000
span_72902,115.325883,2.057900,115.325883,2.057900,0.000000,0.000000
span_72903,115.322959,2.059130,115.322959,2.059130,0.000000,0.000000
span_72904,115.055820,2.054837,115.055820,2.054837,0.000000,0.000000
span_72905,115.055820,2.054837,115.055820,2.054837,0.000000,0.000000
span_72906,115.281960,2.058345,115.281960,2.058345,0.000000,0.000000
e72805203100643,117.194271,4.157240,117.194271,4.157240,0.000000,0.000000
span_59953,110.675568,-0.059120,110.675568,-0.059120,0.000000,0.000000
span_72907,114.995044,2.053487,114.995044,2.053487,0.000000,0.000000
span_72908,115.084141,2.054808,115.084141,2.054808,0.000000,0.000000
span_72909,115.084141,2.054808,115.084141,2.054808,0.000000,0.000000
span_72976,109.713456,-0.054156,109.713456,-0.054156,0.000000,0.000000
span_69323,109.808695,-0.055687,109.808695,-0.055687,0.000000,0.000000
span_71646,108.633240,-0.063480,108.633240,-0.063480,0.000000,0.000000
span_72977,109.713456,-0.054156,109.713456,-0.054156,0.000000,0.000000
span_71647,108.838400,-0.059977,108.838400,-0.059977,0.000000,0.000000
span_71648,108.838400,-0.059977,108.838400,-0.059977,0.000000,0.000000
span_71649,108.712155,-0.062019,108.712155,-0.062019,0.000000,0.000000
span_69320,109.886002,-0.054453,109.886002,-0.054453,0.000000,0.000000
span_69322,109.886002,-0.054453,109.886002,-0.054453,0.000000,0.000000
span_69321,109.886002,-0.054453,109.886002,-0.054453,0.000000,0.000000
e72809600042789,115.553356,4.153188,115.553356,4.153188,0.000000,0.000000
span_71640,108.960860,-0.057459,108.960860,-0.057459,0.000000,0.000000
e72809600042787,111.023879,2.060855,111.023879,2.060855,0.000000,0.000000
span_72971,113.276391,-0.044037,113.276391,-0.044037,0.000000,0.000000
span_72972,113.276391,-0.044037,113.276391,-0.044037,0.000000,0.000000
span_71641,108.960860,-0.057459,108.960860,-0.057459,0.000000,0.000000
span_72973,113.276391,-0.044037,113.276391,-0.044037,0.000000,0.000000
span_71642,108.960860,-0.057459,108.960860,-0.057459,0.000000,0.000000
span_71643,108.960860,-0.057459,108.960860,-0.057459,0.000000,0.000000
span_72975,109.349875,-0.063390,109.349875,-0.063390,0.000000,0.000000
span_71644,108.960860,-0.057459,108.960860,-0.057459,0.000000,0.000000
e72805203095524,116.892769,4.163266,116.892769,4.163266,0.000000,0.000000
span_69317,109.415507,-0.062488,109.415507,-0.062488,0.000000,0.000000
span_69316,109.349875,-0.063390,109.349875,-0.063390,0.000000,0.000000
span_69319,109.566698,-0.059893,109.566698,-0.059893,0.000000,0.000000
span_69318,109.566698,-0.059893,109.566698,-0.059893,0.000000,0.000000
span_69335,112.606612,2.057485,112.606612,2.057485,0.000000,0.000000
span_71634,116.551496,4.156043,116.551496,4.156043,0.000000,0.000000
span_69334,112.606612,2.057485,112.606612,2.057485,0.000000,0.000000
span_72966,116.063440,2.046980,116.063440,2.046980,0.000000,0.000000
span_71635,108.943063,-0.057771,108.943063,-0.057771,0.000000,0.000000
e72809600042792,109.165287,-0.059673,109.165287,-0.059673,0.000000,0.000000
span_71636,108.960860,-0.057459,108.960860,-0.057459,0.000000,0.000000
span_69337,112.670645,2.058490,112.670645,2.058490,0.000000,0.000000
e72809600042790,116.027076,4.153065,116.027076,4.153065,0.000000,0.000000
span_71637,108.960860,-0.057459,108.960860,-0.057459,0.000000,0.000000
span_71638,108.960860,-0.057459,108.960860,-0.057459,0.000000,0.000000
span_69331,112.570149,2.056895,112.570149,2.056895,0.000000,0.000000
span_72969,116.061808,2.046919,116.061808,2.046919,0.000000,0.000000
span_69330,109.562964,-0.059711,109.562964,-0.059711,0.000000,0.000000
span_71639,108.960860,-0.057459,108.960860,-0.057459,0.000000,0.000000
span_69333,112.570149,2.056895,112.570149,2.056895,0.000000,0.000000
span_69332,112.570149,2.056895,112.570149,2.056895,0.000000,0.000000
span_72961,116.247758,2.049734,116.247758,2.049734,0.000000,0.000000
span_72962,116.247758,2.049734,116.247758,2.049734,0.000000,0.000000
span_71631,105.675425,2.074031,105.675425,2.074031,0.000000,0.000000
span_71632,105.675425,2.074031,105.675425,2.074031,0.000000,0.000000
span_72963,116.247758,2.049734,116.247758,2.049734,0.000000,0.000000
span_71633,116.551496,4.156043,116.551496,4.156043,0.000000,0.000000
span_69328,109.562964,-0.059711,109.562964,-0.059711,0.000000,0.000000
span_69327,109.472131,-0.061245,109.472131,-0.061245,0.000000,0.000000
e72805203095536,118.428147,4.165092,118.428147,4.165092,0.000000,0.000000
e72805203095538,115.631697,2.051864,115.631697,2.051864,0.000000,0.000000
span_69329,109.562964,-0.059711,109.562964,-0.059711,0.000000,0.000000
span_71623,106.480784,2.070230,106.480784,2.070230,0.000000,0.000000
span_72954,116.989551,4.157983,116.989551,4.157983,0.000000,0.000000
span_72955,117.144246,4.160330,117.144246,4.160330,0.000000,0.000000
span_72956,117.558074,-0.035705,117.558074,-0.035705,0.000000,0.000000
span_72957,117.558074,-0.035705,117.558074,-0.035705,0.000000,0.000000
span_72959,116.247758,2.049734,116.247758,2.049734,0.000000,0.000000
span_71620,106.353765,2.067504,106.353765,2.067504,0.000000,0.000000
span_72952,116.989551,4.157983,116.989551,4.157983,0.000000,0.000000
span_71621,106.353765,2.067504,106.353765,2.067504,0.000000,0.000000
span_71622,106.480784,2.070230,106.480784,2.070230,0.000000,0.000000
span_72953,116.989551,4.157983,116.989551,4.157983,0.000000,0.000000
span_69310,109.328038,-0.062114,109.328038,-0.062114,0.000000,0.000000
span_99173,117.362219,4.156590,117.362219,4.156590,0.000000,0.000000
span_99174,117.362219,4.156590,117.362219,4.156590,0.000000,0.000000
span_99175,117.362219,4.156590,117.362219,4.156590,0.000000,0.000000
span_99176,117.362219,4.156590,117.362219,4.156590,0.000000,0.000000
span_99177,117.362219,4.156590,117.362219,4.156590,0.000000,0.000000
span_99178,117.362219,4.156590,117.362219,4.156590,0.000000,0.000000
span_99179,117.362219,4.156590,117.362219,4.156590,0.000000,0.000000
span_59992,106.104291,2.064551,106.104291,2.064551,0.000000,0.000000
e72805100060415,113.334905,-0.045061,113.334905,-0.045061,0.000000,0.000000
e72805203095511,117.532906,-0.036726,117.532906,-0.036726,0.000000,0.000000
span_69306,109.533958,-0.058208,109.533958,-0.058208,0.000000,0.000000
span_69305,109.533958,-0.058208,109.533958,-0.058208,0.000000,0.000000
span_69308,109.328038,-0.062114,109.328038,-0.062114,0.000000,0.000000
span_99171,117.362219,4.156590,117.362219,4.156590,0.000000,0.000000
e72805203095517,112.296254,2.055280,112.296254,2.055280,0.000000,0.000000
span_99172,117.362219,4.156590,117.362219,4.156590,0.000000,0.000000
span_103765,116.265785,4.167350,116.265785,4.167350,0.000000,0.000000
e72805003081003,117.086157,4.158483,117.086157,4.158483,0.000000,0.000000
e72805003081004,116.149613,2.047756,116.149613,2.047756,0.000000,0.000000
span_103763,113.456152,-0.040023,113.456152,-0.040023,0.000000,0.000000
e72805003081006,117.193064,4.160443,117.193064,4.160443,0.000000,0.000000
span_103762,106.902282,2.071849,106.902282,2.071849,0.000000,0.000000
span_103761,106.450529,2.068727,106.450529,2.068727,0.000000,0.000000
span_103760,106.712586,2.068388,106.712586,2.068388,0.000000,0.000000
e72805003081009,117.299230,4.162128,117.299230,4.162128,0.000000,0.000000
span_103769,115.540262,2.046907,115.540262,2.046907,0.000000,0.000000
span_103768,115.813375,2.043462,115.813375,2.043462,0.000000,0.000000
span_103767,115.813375,2.043462,115.813375,2.043462,0.000000,0.000000
span_103766,115.355610,-0.037776,115.355610,-0.037776,0.000000,0.000000
e72805003081012,117.523573,-0.036674,117.523573,-0.036674,0.000000,0.000000
e72805003081014,117.416403,-0.038305,117.416403,-0.038305,0.000000,0.000000
span_103775,117.136949,-0.042355,117.136949,-0.042355,0.000000,0.000000
e72805003081015,117.235864,-0.040962,117.235864,-0.040962,0.000000,0.000000
span_103774,116.040425,4.157241,116.040425,4.157241,0.000000,0.000000
span_103773,116.040425,4.157241,116.040425,4.157241,0.000000,0.000000
e72805003081017,117.595703,-0.035281,117.595703,-0.035281,0.000000,0.000000
span_103771,115.777680,2.047065,115.777680,2.047065,0.000000,0.000000
span_216577,117.489339,-0.037298,117.489339,-0.037298,0.000000,0.000000
span_216576,117.489339,-0.037298,117.489339,-0.037298,0.000000,0.000000
span_216578,117.561100,-0.036171,117.561100,-0.036171,0.000000,0.000000
span_103777,105.343706,2.074579,105.343706,2.074579,0.000000,0.000000
e72805003081020,117.083507,4.158907,117.083507,4.158907,0.000000,0.000000
e72805003081022,117.136949,-0.042355,117.136949,-0.042355,0.000000,0.000000
e72805103097598,112.780564,-0.044691,112.780564,-0.044691,0.000000,0.000000
e72805100060475,106.225158,2.064775,106.225158,2.064775,0.000000,0.000000
e72805003103025,115.775152,4.159017,115.775152,4.159017,0.000000,0.000000
e72805003103024,115.560572,4.155585,115.560572,4.155585,0.000000,0.000000
e100_d1_134k1,118.423189,4.183298,118.423189,4.183298,0.000000,0.000000
span_229891,112.248016,2.057364,112.248016,2.057364,0.000000,0.000000
span_216598,115.447398,4.153189,115.447398,4.153189,0.000000,0.000000
e72805003081000,117.483457,-0.037374,117.483457,-0.037374,0.000000,0.000000
span_60907,109.165287,-0.059673,109.165287,-0.059673,0.000000,0.000000
span_60909,109.261845,-0.056872,109.261845,-0.056872,0.000000,0.000000
span_60901,110.587871,2.064588,110.587871,2.064588,0.000000,0.000000
span_60900,111.023879,2.060855,111.023879,2.060855,0.000000,0.000000
span_60903,109.793667,2.055794,109.793667,2.055794,0.000000,0.000000
e72805203100650,115.276849,2.057321,115.276849,2.057321,0.000000,0.000000
span_60905,110.246172,2.064786,110.246172,2.064786,0.000000,0.000000
span_60904,110.125055,2.062047,110.125055,2.062047,0.000000,0.000000
e72805200061078,110.953574,-0.056164,110.953574,-0.056164,0.000000,0.000000
e72809600040092,115.487908,4.154138,115.487908,4.154138,0.000000,0.000000
span_60910,108.605145,-0.063701,108.605145,-0.063701,0.000000,0.000000
span_103787,116.514357,4.157761,116.514357,4.157761,0.000000,0.000000
span_103786,116.117556,-0.035874,116.117556,-0.035874,0.000000,0.000000
span_103785,115.880385,4.158238,115.880385,4.158238,0.000000,0.000000
span_103784,116.317301,-0.033017,116.317301,-0.033017,0.000000,0.000000
span_103783,115.131084,2.050935,115.131084,2.050935,0.000000,0.000000
span_64496,117.083016,4.156918,117.083016,4.156918,0.000000,0.000000
span_103782,114.870809,2.046606,114.870809,2.046606,0.000000,0.000000
e72805100042603,106.463928,2.070458,106.463928,2.070458,0.000000,0.000000
span_103781,114.870809,2.046606,114.870809,2.046606,0.000000,0.000000
span_103780,116.080877,2.047324,116.080877,2.047324,0.000000,0.000000
span_215299,115.851628,2.043631,115.851628,2.043631,0.000000,0.000000
e72805200048095,114.872276,2.046836,114.872276,2.046836,0.000000,0.000000
span_103788,116.514357,4.157761,116.514357,4.157761,0.000000,0.000000
span_215297,116.374333,-0.037652,116.374333,-0.037652,0.000000,0.000000
span_103798,108.943063,-0.057771,108.943063,-0.057771,0.000000,0.000000
span_103797,108.943063,-0.057771,108.943063,-0.057771,0.000000,0.000000
span_103796,108.943063,-0.057771,108.943063,-0.057771,0.000000,0.000000
span_103794,118.070851,4.163926,118.070851,4.163926,0.000000,0.000000
span_103792,117.270159,4.162406,117.270159,4.162406,0.000000,0.000000
e72805203078953,113.206867,-0.054441,113.206867,-0.054441,0.000000,0.000000
span_183835,118.254516,4.167477,118.254516,4.167477,0.000000,0.000000
span_183832,118.073469,4.160566,118.073469,4.160566,0.000000,0.000000
e72805103104905,105.843267,2.075536,105.843267,2.075536,0.000000,0.000000
e72805003081092,116.317716,4.160288,116.317716,4.160288,0.000000,0.000000
span_144231,117.536766,-0.036586,117.536766,-0.036586,0.000000,0.000000
e72805003081097,116.283501,4.160664,116.283501,4.160664,0.000000,0.000000
e72805203078947,113.147634,-0.054367,113.147634,-0.054367,0.000000,0.000000
e72805203078945,117.440805,4.157043,117.440805,4.157043,0.000000,0.000000
e72804500043157,110.278167,2.061245,110.278167,2.061245,0.000000,0.000000
span_217828,115.903580,4.155057,115.903580,4.155057,0.000000,0.000000
e72805203078940,113.135943,-0.053144,113.135943,-0.053144,0.000000,0.000000
span_217829,115.903580,4.155057,115.903580,4.155057,0.000000,0.000000
e72805203078935,112.235882,-0.058193,112.235882,-0.058193,0.000000,0.000000
e72805203078975,112.974070,-0.059057,112.974070,-0.059057,0.000000,0.000000
e72805203078974,113.246668,-0.054158,113.246668,-0.054158,0.000000,0.000000
e72805203078970,113.022867,-0.057602,113.022867,-0.057602,0.000000,0.000000
span_217830,115.547402,4.150592,115.547402,4.150592,0.000000,0.000000
e72805003081071,115.938882,2.045761,115.938882,2.045761,0.000000,0.000000
e72805003081075,116.199527,4.156981,116.199527,4.156981,0.000000,0.000000
e72805203078969,112.920096,-0.059231,112.920096,-0.059231,0.000000,0.000000
e72805003081078,116.215887,4.157440,116.215887,4.157440,0.000000,0.000000
e72805203078967,113.021407,-0.057606,113.021407,-0.057606,0.000000,0.000000
e72805003081079,116.421788,4.160763,116.421788,4.160763,0.000000,0.000000
span_183827,118.138621,4.162322,118.138621,4.162322,0.000000,0.000000
span_183826,118.480549,4.165316,118.480549,4.165316,0.000000,0.000000
e72805203078960,113.302205,-0.053163,113.302205,-0.053163,0.000000,0.000000
e72805203078961,113.146124,-0.055648,113.146124,-0.055648,0.000000,0.000000
span_229817,117.261240,4.157671,117.261240,4.157671,0.000000,0.000000
span_229818,117.261240,4.157671,117.261240,4.157671,0.000000,0.000000
e72805003081081,116.314884,4.159129,116.314884,4.159129,0.000000,0.000000
e72805003081082,116.479726,4.161713,116.479726,4.161713,0.000000,0.000000
e72805003081084,116.541369,-0.037092,116.541369,-0.037092,0.000000,0.000000
e72805003081086,116.194651,4.157592,116.194651,4.157592,0.000000,0.000000
e72805003081088,116.044082,4.155509,116.044082,4.155509,0.000000,0.000000
e72805003081047,116.063440,2.046980,116.063440,2.046980,0.000000,0.000000
e72805203078998,114.492727,2.059224,114.492727,2.059224,0.000000,0.000000
e72805003081048,117.510127,-0.036433,117.510127,-0.036433,0.000000,0.000000
e72805203078992,114.309866,2.057265,114.309866,2.057265,0.000000,0.000000
e72805003081051,117.558074,-0.035705,117.558074,-0.035705,0.000000,0.000000
e72805003081054,116.846451,4.155738,116.846451,4.155738,0.000000,0.000000
e72805003081055,116.989551,4.157983,116.989551,4.157983,0.000000,0.000000
e72805203078988,114.072451,2.053658,114.072451,2.053658,0.000000,0.000000
e72805003081057,117.232133,4.161784,117.232133,4.161784,0.000000,0.000000
e72805003081058,117.078154,4.159372,117.078154,4.159372,0.000000,0.000000
e72805003081059,116.758184,-0.033483,116.758184,-0.033483,0.000000,0.000000
span_216539,116.791134,4.161083,116.791134,4.161083,0.000000,0.000000
span_216538,116.791134,4.161083,116.791134,4.161083,0.000000,0.000000
e72805203078983,113.271015,-0.055516,113.271015,-0.055516,0.000000,0.000000
e72805203078980,114.287893,2.058053,114.287893,2.058053,0.000000,0.000000
span_216537,116.791134,4.161083,116.791134,4.161083,0.000000,0.000000
span_216535,117.378110,4.156943,117.378110,4.156943,0.000000,0.000000
e72805103104966,106.659565,2.068694,106.659565,2.068694,0.000000,0.000000
e72805003081061,116.711603,-0.034244,116.711603,-0.034244,0.000000,0.000000
e72805003081065,116.771013,-0.033275,116.771013,-0.033275,0.000000,0.000000
e72805003081066,116.480645,-0.037855,116.480645,-0.037855,0.000000,0.000000
e72805203078977,114.330193,2.059305,114.330193,2.059305,0.000000,0.000000
e72805003081067,116.579907,-0.036392,116.579907,-0.036392,0.000000,0.000000
e72805203078978,113.439788,-0.052179,113.439788,-0.052179,0.000000,0.000000
e72805003081068,116.801428,-0.032898,116.801428,-0.032898,0.000000,0.000000
e72805003081026,117.361115,-0.038830,117.361115,-0.038830,0.000000,0.000000
e72805003081027,116.061808,2.046919,116.061808,2.046919,0.000000,0.000000
span_229862,109.349896,-0.054850,109.349896,-0.054850,0.000000,0.000000
span_229863,109.349896,-0.054850,109.349896,-0.054850,0.000000,0.000000
e72805003081036,116.247758,2.049734,116.247758,2.049734,0.000000,0.000000
e72805100040038,113.670025,-0.041136,113.670025,-0.041136,0.000000,0.000000
span_215221,116.999111,4.168149,116.999111,4.168149,0.000000,0.000000
e72805100040031,106.908037,2.068736,106.908037,2.068736,0.000000,0.000000
span_229852,112.870227,-0.054963,112.870227,-0.054963,0.000000,0.000000
e72805003081044,117.144246,4.160330,117.144246,4.160330,0.000000,0.000000
span_72899,115.325883,2.057900,115.325883,2.057900,0.000000,0.000000
span_94202,117.336157,4.156458,117.336157,4.156458,0.000000,0.000000
span_94201,117.336157,4.156458,117.336157,4.156458,0.000000,0.000000
span_94200,117.336157,4.156458,117.336157,4.156458,0.000000,0.000000
span_72891,115.458075,2.059840,115.458075,2.059840,0.000000,0.000000
span_72895,115.325883,2.057900,115.325883,2.057900,0.000000,0.000000
span_72898,115.325883,2.057900,115.325883,2.057900,0.000000,0.000000
e72805103102330,111.168536,-0.049179,111.168536,-0.049179,0.000000,0.000000
e72805003100654,116.485797,-0.038145,116.485797,-0.038145,0.000000,0.000000
span_72889,115.458075,2.059840,115.458075,2.059840,0.000000,0.000000
span_72880,117.337767,4.156184,117.337767,4.156184,0.000000,0.000000
span_72881,117.580744,4.160470,117.580744,4.160470,0.000000,0.000000
span_72882,117.580744,4.160470,117.580744,4.160470,0.000000,0.000000
span_72883,117.580744,4.160470,117.580744,4.160470,0.000000,0.000000
span_72884,117.580744,4.160470,117.580744,4.160470,0.000000,0.000000
span_72885,117.580744,4.160470,117.580744,4.160470,0.000000,0.000000
span_72886,117.580744,4.160470,117.580744,4.160470,0.000000,0.000000
e72805000062566,116.144410,-0.038431,116.144410,-0.038431,0.000000,0.000000
span_72887,115.120851,2.055125,115.120851,2.055125,0.000000,0.000000
span_72890,115.458075,2.059840,115.458075,2.059840,0.000000,0.000000
span_222208,112.433781,2.057797,112.433781,2.057797,0.000000,0.000000
span_222206,111.698854,2.060029,111.698854,2.060029,0.000000,0.000000
span_222205,111.698854,2.060029,111.698854,2.060029,0.000000,0.000000
span_72877,117.337767,4.156184,117.337767,4.156184,0.000000,0.000000
span_72878,117.337767,4.156184,117.337767,4.156184,0.000000,0.000000
span_72879,117.337767,4.156184,117.337767,4.156184,0.000000,0.000000
span_72870,117.682092,4.160257,117.682092,4.160257,0.000000,0.000000
span_72871,117.682092,4.160257,117.682092,4.160257,0.000000,0.000000
span_71540,111.968860,-0.045698,111.968860,-0.045698,0.000000,0.000000
span_71541,111.968860,-0.045698,111.968860,-0.045698,0.000000,0.000000
span_72874,117.404301,4.156863,117.404301,4.156863,0.000000,0.000000
span_72875,117.404301,4.156863,117.404301,4.156863,0.000000,0.000000
span_72876,117.272182,4.154374,117.272182,4.154374,0.000000,0.000000
span_72866,117.594724,4.159991,117.594724,4.159991,0.000000,0.000000
span_71535,111.145445,-0.048845,111.145445,-0.048845,0.000000,0.000000
span_71536,111.145445,-0.048845,111.145445,-0.048845,0.000000,0.000000
span_72867,117.594724,4.159991,117.594724,4.159991,0.000000,0.000000
span_71537,111.875848,-0.047162,111.875848,-0.047162,0.000000,0.000000
span_72868,117.752552,4.161130,117.752552,4.161130,0.000000,0.000000
span_72869,117.682092,4.160257,117.682092,4.160257,0.000000,0.000000
span_71538,111.875848,-0.047162,111.875848,-0.047162,0.000000,0.000000
span_71539,111.851551,-0.047574,111.851551,-0.047574,0.000000,0.000000
e72805200031065,109.847784,-0.063717,109.847784,-0.063717,0.000000,0.000000
span_72860,116.984412,2.060860,116.984412,2.060860,0.000000,0.000000
span_71530,106.707870,2.070745,106.707870,2.070745,0.000000,0.000000
span_72861,117.738543,4.158159,117.738543,4.158159,0.000000,0.000000
span_71531,105.580169,2.071645,105.580169,2.071645,0.000000,0.000000
span_71532,105.580169,2.071645,105.580169,2.071645,0.000000,0.000000
span_72863,116.312731,2.059104,116.312731,2.059104,0.000000,0.000000
...